
*** ChampSim Multicore Out-of-Order Simulator ***

Warmup Instructions: 1000000
Simulation Instructions: 1000000
Number of CPUs: 1
LLC sets: 4096
LLC ways: 16
Off-chip DRAM Size: 4096 MB Channels: 1 Width: 64-bit Data Rate: 3200 MT/s

CPU 0 runs /home/rajesh/work/caws2020/lab_day1/CAWS-LAB/ChampSim/dpc3_traces/cache_access_4K.xz
CPU 0 Bimodal branch predictor

Warmup complete CPU 0 instructions: 1000001 cycles: 668667 (Simulation time: 0 hr 0 min 3 sec) 

*** Reached end of trace for Core: 0 Repeating trace: /home/rajesh/work/caws2020/lab_day1/CAWS-LAB/ChampSim/dpc3_traces/cache_access_4K.xz
Finished CPU 0 instructions: 1000001 cycles: 1668563 cumulative IPC: 0.599319 (Simulation time: 0 hr 0 min 6 sec) 

ChampSim completed all CPUs

Region of Interest Statistics

CPU 0 cumulative IPC: 0.599319 instructions: 1000001 cycles: 1668563
L1D TOTAL     ACCESS:     166668  HIT:     166668  MISS:          0
L1D LOAD      ACCESS:     166668  HIT:     166668  MISS:          0
L1D RFO       ACCESS:          0  HIT:          0  MISS:          0
L1D PREFETCH  ACCESS:          0  HIT:          0  MISS:          0
L1D WRITEBACK ACCESS:          0  HIT:          0  MISS:          0
L1D PREFETCH  REQUESTED:          0  ISSUED:          0  USEFUL:          0  USELESS:          0
L1D AVERAGE MISS LATENCY: -nan cycles
L1I TOTAL     ACCESS:     333334  HIT:     333334  MISS:          0
L1I LOAD      ACCESS:     333334  HIT:     333334  MISS:          0
L1I RFO       ACCESS:          0  HIT:          0  MISS:          0
L1I PREFETCH  ACCESS:          0  HIT:          0  MISS:          0
L1I WRITEBACK ACCESS:          0  HIT:          0  MISS:          0
L1I PREFETCH  REQUESTED:          0  ISSUED:          0  USEFUL:          0  USELESS:          0
L1I AVERAGE MISS LATENCY: -nan cycles
L2C TOTAL     ACCESS:          0  HIT:          0  MISS:          0
L2C LOAD      ACCESS:          0  HIT:          0  MISS:          0
L2C RFO       ACCESS:          0  HIT:          0  MISS:          0
L2C PREFETCH  ACCESS:          0  HIT:          0  MISS:          0
L2C WRITEBACK ACCESS:          0  HIT:          0  MISS:          0
L2C PREFETCH  REQUESTED:          0  ISSUED:          0  USEFUL:          0  USELESS:          0
L2C AVERAGE MISS LATENCY: -nan cycles
LLC TOTAL     ACCESS:          0  HIT:          0  MISS:          0
LLC LOAD      ACCESS:          0  HIT:          0  MISS:          0
LLC RFO       ACCESS:          0  HIT:          0  MISS:          0
LLC PREFETCH  ACCESS:          0  HIT:          0  MISS:          0
LLC WRITEBACK ACCESS:          0  HIT:          0  MISS:          0
LLC PREFETCH  REQUESTED:          0  ISSUED:          0  USEFUL:          0  USELESS:          0
LLC AVERAGE MISS LATENCY: -nan cycles
Major fault: 0 Minor fault: 1

DRAM Statistics
 CHANNEL 0
 RQ ROW_BUFFER_HIT:          0  ROW_BUFFER_MISS:          0
 DBUS_CONGESTED:          0
 WQ ROW_BUFFER_HIT:          0  ROW_BUFFER_MISS:          0  FULL:          0

 AVG_CONGESTED_CYCLE: -

CPU 0 Branch Prediction Accuracy: 100% MPKI: 0 Average ROB Occupancy at Mispredict: -nan

Branch types
NOT_BRANCH: 833334 83.3333%
BRANCH_DIRECT_JUMP: 166667 16.6667%
BRANCH_INDIRECT: 0 0%
BRANCH_CONDITIONAL: 0 0%
BRANCH_DIRECT_CALL: 0 0%
BRANCH_INDIRECT_CALL: 0 0%
BRANCH_RETURN: 0 0%
BRANCH_OTHER: 0 0%

